

\section{Conversion from ppbv to number density using GEOS-Chem}

\subsection{}